&jules_snow

can_clump=5*0.0
cansnowpft=.false.,.true.,.false.,.false.,.false.
frac_snow_subl_melt=1

i_snow_cond_parm=0
l_et_metamorph=.false.
l_snow_infilt=.false.
l_snow_nocan_hc=.false.
l_snowdep_surf=.false.
lai_alb_lim_sn=5*0.5
n_lai_exposed=5*0.0
nsmax=0

unload_rate_cnst=5*0.0
unload_rate_u=5*0.0
/
