&jules_triffid
alloc_fast_io=0.6,0.6,1.0,1.0,0.8,
alloc_med_io=0.3,0.4,0.0,0.0,0.2,
alloc_slow_io=0.1,0.0,0.0,0.0,0.0,
crop_io=0,0,1,1,0,
dpm_rpm_ratio_io=0.25,0.25,0.67,0.67,0.33,
g_area_io=0.005,0.004,0.25,0.25,0.05,
g_grow_io=5*20.00,
g_root_io=5*0.25,
g_wood_io=0.01,0.01,0.20,0.20,0.05,
lai_max_io=9.00,9.00,4.00,4.00,4.00,
lai_min_io=3.00,3.00,1.00,1.00,1.00,
retran_l_io=5*0.5,
retran_r_io=5*0.2,
/
