&jules_surface_types
!!elev_ice=0,
!!elev_rock=0,
ice=9,
lake=7,
nnvg=4,
npft=5,
soil=8,
urban=6,
/
