&jules_input_grid
grid_is_1d=.false.,
nx=1,
ny=1,
time_dim_name='tstep',
/
&jules_latlon
latitude=52.168,
longitude=5.744,
/
&jules_land_frac
/
&jules_model_grid
force_1d_grid=.false.,
land_only=.false.,
use_subgrid=.false.,
/
&jules_surf_hgt
zero_height=.true.,
/
&jules_z_land
/
