&jules_model_environment
l_jules_parent=0,
/
