&jules_hydrology
l_pdm=.false.,
l_top=.true.,
l_wetland_unfrozen=.false.,
nfita=20,
ti_max=10.0,
ti_wetl=1.5,
zw_max=6.0,
/
