&jules_frac
file='/p/home/wegielj/JULES_single_layer/namelist_files/tile_fractions.dat',
/
&jules_soil_props
const_val=6.63,0.04946,0.004715,0.45815,0.242433,0.136328,1185676.0,
0.226873,0.11,
const_z=.false.,
nvars=9,
use_file=9*.false.,
var='b','sathh','satcon','sm_sat','sm_crit','sm_wilt','hcap',
'hcon','albsoil',
/
&jules_top
const_val=1.0,6.0,2.0,
nvars=3,
use_file=.false.,.false.,.false.,
var='fexp','ti_mean','ti_sig',
/
&jules_agric
/
&jules_co2
co2_mmr=5.94100e-4,
/
